$# LS-DYNA Keyword file created by LS-PrePost(R) 2025 R1 (v4.12.6) - 14May2025
$# Created on Sep-23-2025 (05:22:24)
*KEYWORD
*TITLE
$#                                                                         title
LS-DYNA keyword deck by LS-PrePost
*CONTROL_TERMINATION
$#  endtim    endcyc     dtmin    endeng    endmas     nosol
      20.0         0       0.0       0.01.000000E8         0
*DATABASE_BNDOUT
$#      dt    binary      lcur     ioopt   option1   option2   option3   option4
       0.5         0         0         1         0         0         0         0
*DATABASE_NODOUT
$#      dt    binary      lcur     ioopt   option1   option2
       0.5         0         0         1       0.0         0
*DATABASE_SPCFORC
$#      dt    binary      lcur     ioopt
       0.5         0         0         1
*DATABASE_BINARY_D3PLOT
$#      dt      lcdt      beam     npltc    psetid
       2.0         0         0         0         0
*DATABASE_EXTENT_BINARY
$#   neiph     neips    maxint    strflg    sigflg    epsflg    rltflg    engflg
         0         0         3         1         1         1         1         1
$#  cmpflg    ieverp    beamip     dcomp      shge     stssz    n3thdt   ialemat
         0         0         0         1         1         1         2         1
$# nintsld   pkp_sen      sclp     hydro     msscl     therm    intout    nodout
         0         0       1.0         0         0         0                    
$#    dtdt    resplt     neipb   quadsld    cubsld   deleres
         0         0         0         0         0         0
*DATABASE_HISTORY_NODE_SET
$#     id1       id2       id3       id4       id5       id6       id7       id8
         2         0         0         0         0         0         0         0
*BOUNDARY_PRESCRIBED_MOTION_SET_ID
$#      id                                                               heading
         1                                                                      
$#    nsid       dof       vad      lcid        sf       vid     death     birth
         2         1         2         1       1.0         01.00000E28       0.0
*BOUNDARY_SPC_SET_ID
$#      id                                                               heading
         1                                                                      
$#    nsid       cid      dofx      dofy      dofz     dofrx     dofry     dofrz
         1         0         1         1         1         0         0         0
*SET_NODE_LIST_TITLE
Left_constrained
$#     sid       da1       da2       da3       da4    solver       its         -
         1       0.0       0.0       0.0       0.0MECH               1          
$#    nid1      nid2      nid3      nid4      nid5      nid6      nid7      nid8
         1       102       203       304       405       506       607       708
       809       910      1011      1112      1213      1314      1415      1516
      1617      1718      1819      1920      2021      2122      2223      2324
      2425      2526      2627      2728      2829      2930      3031      3132
      3233      3334      3435      3536      3637      3738      3839      3940
      4041      4142      4243      4344      4445      4546      4647      4748
      4849      4950      5051      5152      5253      5354      5455      5556
      5657      5758      5859      5960      6061      6162      6263      6364
      6465      6566      6667      6768      6869      6970      7071      7172
      7273      7374      7475      7576      7677      7778      7879      7980
      8081      8182      8283      8384      8485      8586      8687      8788
      8889      8990      9091      9192      9293      9394      9495      9596
      9697      9798      9899     10000     10101     10202     10303     10404
     10505     10606     10707     10808     10909     11010     11111     11212
     11313     11414     11515     11616     11717     11818     11919     12020
     12121         0         0         0         0         0         0         0
*MAT_PLASTIC_KINEMATIC_TITLE
Units- mm, msec, GPa, kN, Nmm
$#     mid        ro         e        pr      sigy      etan      beta
         17.85000E-9     200.0       0.3      0.25     0.002       0.0
$#     src       srp        fs        vp
       0.0       0.0       0.0       0.0
*MAT_ELASTIC_TITLE
elastic- kg, mm, msec, GPa, kN, Nm
$#     mid        ro         e        pr        da        db  not used  not used
         27.85000E-9       0.2       0.3       0.0       0.0         0         0
*NODE
$#   nid               x               y               z      tc      rc
       1             0.0             0.0             0.0       0       0
       2             0.5             0.0             0.0       0       0
       3             1.0             0.0             0.0       0       0
       4             1.5             0.0             0.0       0       0
       5             2.0             0.0             0.0       0       0
       6             2.5             0.0             0.0       0       0
       7             3.0             0.0             0.0       0       0
       8             3.5             0.0             0.0       0       0
       9             4.0             0.0             0.0       0       0
      10             4.5             0.0             0.0       0       0
      11             5.0             0.0             0.0       0       0
      12             5.5             0.0             0.0       0       0
      13             6.0             0.0             0.0       0       0
      14             6.5             0.0             0.0       0       0
      15             7.0             0.0             0.0       0       0
      16             7.5             0.0             0.0       0       0
      17             8.0             0.0             0.0       0       0
      18             8.5             0.0             0.0       0       0
      19             9.0             0.0             0.0       0       0
      20             9.5             0.0             0.0       0       0
$ ... 12201 like lines cut
*DEFINE_CURVE
$#    lcid      sidr       sfa       sfo      offa      offo    dattyp     lcint
         1         0       1.0       1.0       0.0       0.0         0         0
$#                a1                  o1
                 0.0                 0.0
                20.0                20.0
*PART
$#                                                                         title
RectangleBox
$#     pid     secid       mid     eosid      hgid      grav    adpopt      tmid
         1         1         2         0         0         0         0         0
*SECTION_SOLID
$#   secid    elform       aet    unused    unused    unused    cohoff   gaskett
         1         1         0                                     0.0       0.0
*ELEMENT_SOLID
$#   eid     pid      n1      n2      n3      n4      n5      n6      n7      n8
       1       1       1       2     103     102    1112    1113    1214    1213
       2       1       2       3     104     103    1113    1114    1215    1214
       3       1       3       4     105     104    1114    1115    1216    1215
       4       1       4       5     106     105    1115    1116    1217    1216
       5       1       5       6     107     106    1116    1117    1218    1217
       6       1       6       7     108     107    1117    1118    1219    1218
       7       1       7       8     109     108    1118    1119    1220    1219
       8       1       8       9     110     109    1119    1120    1221    1220
       9       1       9      10     111     110    1120    1121    1222    1221
      10       1      10      11     112     111    1121    1122    1223    1222
      11       1      11      12     113     112    1122    1123    1224    1223
      12       1      12      13     114     113    1123    1124    1225    1224
      13       1      13      14     115     114    1124    1125    1226    1225
      14       1      14      15     116     115    1125    1126    1227    1226
      15       1      15      16     117     116    1126    1127    1228    1227
      16       1      16      17     118     117    1127    1128    1229    1228
      17       1      17      18     119     118    1128    1129    1230    1229
      18       1      18      19     120     119    1129    1130    1231    1230
      19       1      19      20     121     120    1130    1131    1232    1231
      20       1      20      21     122     121    1131    1132    1233    1232
$ ... 9980 like lines cut
*SET_NODE_LIST_TITLE
Right_stretched
$#     sid       da1       da2       da3       da4    solver       its         -
         2       0.0       0.0       0.0       0.0MECH               1          
$#    nid1      nid2      nid3      nid4      nid5      nid6      nid7      nid8
       101       202       303       404       505       606       707       808
       909      1010      1111      1212      1313      1414      1515      1616
      1717      1818      1919      2020      2121      2222      2323      2424
      2525      2626      2727      2828      2929      3030      3131      3232
      3333      3434      3535      3636      3737      3838      3939      4040
      4141      4242      4343      4444      4545      4646      4747      4848
      4949      5050      5151      5252      5353      5454      5555      5656
      5757      5858      5959      6060      6161      6262      6363      6464
      6565      6666      6767      6868      6969      7070      7171      7272
      7373      7474      7575      7676      7777      7878      7979      8080
      8181      8282      8383      8484      8585      8686      8787      8888
      8989      9090      9191      9292      9393      9494      9595      9696
      9797      9898      9999     10100     10201     10302     10403     10504
     10605     10706     10807     10908     11009     11110     11211     11312
     11413     11514     11615     11716     11817     11918     12019     12120
     12221         0         0         0         0         0         0         0
*END
